<?xml version="1.0" encoding="UTF-8"?>

<!-- generated on 2026-04-18T02:32:31.839442+00:00 by Eclipse SUMO netedit 1.26.0
<neteditConfiguration xmlns:xsi="http://www.w3.org/2001/XMLSchema-instance" xsi:noNamespaceSchemaLocation="http://sumo.dlr.de/xsd/neteditConfiguration.xsd">

    <input>
        <sumo-net-file value="/home/netsim/projeto_final_npr/sumo/manhattan.net.xml"/>
    </input>

    <output>
        <output-file value="/home/netsim/projeto_final_npr/sumo/manhattan.net.xml"/>
        <output.street-names value="true"/>
    </output>

    <processing>
        <geometry.min-radius.fix.railways value="false"/>
        <geometry.avoid-overlap value="false"/>
        <geometry.max-grade.fix value="false"/>
        <offset.disable-normalization value="true"/>
        <lefthand value="0"/>
    </processing>

    <junctions>
        <no-turnarounds value="true"/>
        <junctions.corner-detail value="5"/>
        <junctions.limit-turn-speed value="5.50"/>
        <rectangular-lane-cut value="0"/>
    </junctions>

    <pedestrian>
        <walkingareas value="0"/>
    </pedestrian>

</neteditConfiguration>
-->

<net version="1.20" junctionCornerDetail="5" limitTurnSpeed="5.50" avoidOverlap="0" xmlns:xsi="http://www.w3.org/2001/XMLSchema-instance" xsi:noNamespaceSchemaLocation="http://sumo.dlr.de/xsd/net_file.xsd">

    <location netOffset="0.00,1200.00" convBoundary="0.00,-25.00,2025.00,1225.00" origBoundary="0.00,-1200.00,2000.00,0.00" projParameter="!"/>

    <edge id=":J0_0" function="internal">
        <lane id=":J0_0_0" index="0" disallow="all" speed="8.96" length="18.06" shape="6.40,1204.80 1.50,1204.10 -2.00,1202.00 -4.10,1198.50 -4.80,1193.60"/>
        <lane id=":J0_0_1" index="1" speed="7.66" length="12.90" shape="6.40,1201.60 2.90,1201.10 0.40,1199.60 -1.10,1197.10 -1.60,1193.60"/>
    </edge>
    <edge id=":J0_2" function="internal">
        <lane id=":J0_2_0" index="0" speed="3.90" length="2.58" shape="4.80,1193.60 4.90,1194.30 5.20,1194.80 5.70,1195.10 6.40,1195.20"/>
        <lane id=":J0_2_1" index="1" speed="6.08" length="7.74" shape="1.60,1193.60 1.90,1195.70 2.80,1197.20 4.30,1198.10 6.40,1198.40"/>
    </edge>
    <edge id=":J1_0" function="internal">
        <lane id=":J1_0_0" index="0" speed="7.23" length="8.47" shape="534.29,4.80 532.19,5.10 530.45,6.00 529.06,7.51 528.04,9.61"/>
        <lane id=":J1_0_1" index="1" speed="8.86" length="13.09" shape="534.29,1.60 531.13,2.08 528.50,3.51 526.38,5.90 524.78,9.24"/>
    </edge>
    <edge id=":J1_2" function="internal">
        <lane id=":J1_2_0" index="0" speed="7.23" length="8.47" shape="528.04,-9.61 529.06,-7.51 530.44,-6.00 532.19,-5.10 534.29,-4.80"/>
        <lane id=":J1_2_1" index="1" speed="8.05" length="10.68" shape="528.04,-9.61 529.48,-6.11 531.00,-3.60 532.61,-2.10 534.29,-1.60"/>
    </edge>
    <edge id=":J1_4" function="internal">
        <lane id=":J1_4_0" index="0" speed="13.89" length="19.48" shape="528.04,-9.61 529.82,-4.06 530.42,0.00 529.83,4.06 528.04,9.61"/>
        <lane id=":J1_4_1" index="1" speed="13.89" length="19.48" shape="524.78,-9.24 526.50,-3.90 527.07,0.00 526.50,3.90 524.78,9.24"/>
    </edge>
    <edge id=":J10_0" function="internal">
        <lane id=":J10_0_0" index="0" speed="13.89" length="62.80" shape="-4.80,631.40 -4.80,568.60"/>
        <lane id=":J10_0_1" index="1" speed="13.89" length="62.80" shape="-1.60,631.40 -1.60,568.60"/>
    </edge>
    <edge id=":J10_2" function="internal">
        <lane id=":J10_2_0" index="0" speed="13.89" length="5.01" shape="-1.60,631.40 -0.89,626.44"/>
    </edge>
    <edge id=":J10_3" function="internal">
        <lane id=":J10_3_0" index="0" speed="3.65" length="1.44" shape="-1.60,631.40 -0.80,630.20"/>
    </edge>
    <edge id=":J10_11" function="internal">
        <lane id=":J10_11_0" index="0" speed="13.89" length="48.21" shape="-0.89,626.44 0.46,616.96 6.65,606.65 16.96,600.46 31.40,598.40"/>
    </edge>
    <edge id=":J10_12" function="internal">
        <lane id=":J10_12_0" index="0" speed="3.65" length="3.23" shape="-0.80,630.20 0.00,629.80 0.80,630.20 1.60,631.40"/>
    </edge>
    <edge id=":J10_4" function="internal">
        <lane id=":J10_4_0" index="0" speed="13.59" length="42.90" shape="31.40,604.80 19.76,606.46 11.45,611.45 6.46,619.76 4.80,631.40"/>
    </edge>
    <edge id=":J10_5" function="internal">
        <lane id=":J10_5_0" index="0" speed="13.89" length="53.22" shape="31.40,601.60 16.96,599.54 6.65,593.35 0.46,583.04 -1.60,568.60"/>
    </edge>
    <edge id=":J10_6" function="internal">
        <lane id=":J10_6_0" index="0" speed="3.65" length="4.67" shape="31.40,601.60 30.20,600.80 29.80,600.00 30.20,599.20 31.40,598.40"/>
    </edge>
    <edge id=":J10_7" function="internal">
        <lane id=":J10_7_0" index="0" speed="13.59" length="42.90" shape="4.80,568.60 6.46,580.24 11.45,588.55 19.76,593.54 31.40,595.20"/>
    </edge>
    <edge id=":J10_8" function="internal">
        <lane id=":J10_8_0" index="0" speed="13.89" length="62.80" shape="4.80,568.60 4.80,631.40"/>
        <lane id=":J10_8_1" index="1" speed="13.89" length="62.80" shape="1.60,568.60 1.60,631.40"/>
    </edge>
    <edge id=":J10_10" function="internal">
        <lane id=":J10_10_0" index="0" speed="3.65" length="1.44" shape="1.60,568.60 0.80,569.80"/>
    </edge>
    <edge id=":J10_13" function="internal">
        <lane id=":J10_13_0" index="0" speed="3.65" length="3.23" shape="0.80,569.80 0.00,570.20 -0.80,569.80 -1.60,568.60"/>
    </edge>
    <edge id=":J100_0" function="internal">
        <lane id=":J100_0_0" index="0" disallow="all" speed="6.24" length="6.12" shape="1995.20,634.65 1995.09,632.45 1994.76,630.78 1994.21,629.66 1993.43,629.09"/>
        <lane id=":J100_0_1" index="1" speed="8.03" length="10.62" shape="1998.40,634.65 1998.11,631.40 1997.25,628.85 1995.82,627.00 1993.81,625.84"/>
    </edge>
    <edge id=":J100_2" function="internal">
        <lane id=":J100_2_0" index="0" speed="7.35" length="8.79" shape="2009.61,628.04 2007.51,629.08 2006.00,630.53 2005.10,632.39 2004.80,634.65"/>
        <lane id=":J100_2_1" index="1" speed="8.15" length="10.96" shape="2009.61,628.04 2006.11,629.50 2003.60,631.09 2002.10,632.81 2001.60,634.65"/>
    </edge>
    <edge id=":J100_4" function="internal">
        <lane id=":J100_4_0" index="0" speed="13.89" length="16.38" shape="2009.61,628.04 2004.93,629.70 2001.53,630.56 1998.12,630.42 1993.43,629.09"/>
        <lane id=":J100_4_1" index="1" speed="13.89" length="16.38" shape="2009.23,624.78 2004.77,626.38 2001.52,627.23 1998.27,627.11 1993.81,625.84"/>
    </edge>
    <edge id=":J101_0" function="internal">
        <lane id=":J101_0_0" index="0" speed="7.23" length="8.47" shape="2004.80,565.71 2005.10,567.82 2006.00,569.56 2007.51,570.94 2009.61,571.96"/>
        <lane id=":J101_0_1" index="1" speed="8.85" length="13.09" shape="2001.60,565.71 2002.08,568.87 2003.51,571.51 2005.89,573.62 2009.23,575.22"/>
    </edge>
    <edge id=":J101_2" function="internal">
        <lane id=":J101_2_0" index="0" speed="7.23" length="8.47" shape="1990.39,571.96 1992.49,570.94 1994.00,569.56 1994.90,567.82 1995.20,565.71"/>
        <lane id=":J101_2_1" index="1" speed="8.05" length="10.67" shape="1990.39,571.96 1993.89,570.52 1996.40,569.00 1997.90,567.40 1998.40,565.71"/>
    </edge>
    <edge id=":J101_4" function="internal">
        <lane id=":J101_4_0" index="0" speed="13.89" length="19.48" shape="1990.39,571.96 1995.94,570.18 2000.00,569.58 2004.06,570.18 2009.61,571.96"/>
        <lane id=":J101_4_1" index="1" speed="13.89" length="19.48" shape="1990.77,575.22 1996.10,573.51 2000.00,572.93 2003.90,573.51 2009.23,575.22"/>
    </edge>
    <edge id=":J102_0" function="internal">
        <lane id=":J102_0_0" index="0" speed="7.23" length="8.47" shape="1971.96,609.61 1970.94,607.51 1969.56,606.00 1967.82,605.10 1965.71,604.80"/>
        <lane id=":J102_0_1" index="1" speed="8.05" length="10.67" shape="1971.96,609.61 1970.52,606.11 1969.00,603.60 1967.40,602.10 1965.71,601.60"/>
    </edge>
    <edge id=":J102_2" function="internal">
        <lane id=":J102_2_0" index="0" speed="13.89" length="19.48" shape="1971.96,609.61 1970.18,604.06 1969.58,600.00 1970.18,595.94 1971.96,590.39"/>
        <lane id=":J102_2_1" index="1" speed="13.89" length="19.48" shape="1975.22,609.23 1973.51,603.90 1972.93,600.00 1973.51,596.10 1975.22,590.77"/>
    </edge>
    <edge id=":J102_4" function="internal">
        <lane id=":J102_4_0" index="0" speed="7.23" length="8.47" shape="1965.71,595.20 1967.82,594.90 1969.56,594.00 1970.94,592.49 1971.96,590.39"/>
        <lane id=":J102_4_1" index="1" speed="8.85" length="13.09" shape="1965.71,598.40 1968.87,597.92 1971.51,596.49 1973.62,594.11 1975.22,590.77"/>
    </edge>
    <edge id=":J103_0" function="internal">
        <lane id=":J103_0_0" index="0" disallow="all" speed="5.93" length="6.68" shape="1998.40,935.01 1998.24,932.65 1997.78,930.92 1997.00,929.83 1995.91,929.37"/>
        <lane id=":J103_0_1" index="1" speed="7.53" length="11.37" shape="2001.60,935.01 2001.27,931.38 2000.27,928.70 1998.60,926.97 1996.27,926.19"/>
    </edge>
    <edge id=":J103_2" function="internal">
        <lane id=":J103_2_0" index="0" speed="7.48" length="9.10" shape="2009.61,928.04 2007.51,929.10 2006.00,930.62 2005.10,932.59 2004.80,935.01"/>
        <lane id=":J103_2_1" index="1" speed="8.24" length="11.24" shape="2009.61,928.04 2006.11,929.52 2003.60,931.18 2002.10,933.01 2001.60,935.01"/>
    </edge>
    <edge id=":J103_4" function="internal">
        <lane id=":J103_4_0" index="0" speed="13.89" length="13.61" shape="2009.61,928.04 2005.69,929.31 2002.89,929.85 2000.02,929.81 1995.91,929.37"/>
        <lane id=":J103_4_1" index="1" speed="13.89" length="13.61" shape="2009.23,924.78 2005.52,926.01 2002.87,926.57 2000.16,926.58 1996.27,926.19"/>
    </edge>
    <edge id=":J104_0" function="internal">
        <lane id=":J104_0_0" index="0" speed="7.35" length="8.79" shape="2004.80,865.35 2005.10,867.61 2006.00,869.47 2007.51,870.92 2009.61,871.96"/>
        <lane id=":J104_0_1" index="1" speed="8.95" length="13.40" shape="2001.60,865.35 2002.08,868.67 2003.51,871.42 2005.89,873.60 2009.23,875.22"/>
    </edge>
    <edge id=":J104_2" function="internal">
        <lane id=":J104_2_0" index="0" disallow="all" speed="6.24" length="6.12" shape="1993.43,870.91 1994.21,870.34 1994.76,869.22 1995.09,867.55 1995.20,865.35"/>
        <lane id=":J104_2_1" index="1" speed="7.03" length="7.99" shape="1993.43,870.91 1995.61,869.92 1997.16,868.66 1998.09,867.14 1998.40,865.35"/>
    </edge>
    <edge id=":J104_4" function="internal">
        <lane id=":J104_4_0" index="0" speed="13.89" length="16.38" shape="1993.43,870.91 1998.12,869.58 2001.53,869.44 2004.93,870.30 2009.61,871.96"/>
        <lane id=":J104_4_1" index="1" speed="13.89" length="16.38" shape="1993.81,874.16 1998.27,872.89 2001.52,872.77 2004.77,873.62 2009.23,875.22"/>
    </edge>
    <edge id=":J105_0" function="internal">
        <lane id=":J105_0_0" index="0" speed="7.23" length="8.47" shape="1971.96,909.61 1970.94,907.51 1969.56,906.00 1967.82,905.10 1965.71,904.80"/>
        <lane id=":J105_0_1" index="1" speed="8.05" length="10.67" shape="1971.96,909.61 1970.52,906.11 1969.00,903.60 1967.40,902.10 1965.71,901.60"/>
    </edge>
    <edge id=":J105_2" function="internal">
        <lane id=":J105_2_0" index="0" speed="13.89" length="19.48" shape="1971.96,909.61 1970.18,904.06 1969.58,900.00 1970.18,895.94 1971.96,890.39"/>
        <lane id=":J105_2_1" index="1" speed="13.89" length="19.48" shape="1975.22,909.23 1973.51,903.90 1972.93,900.00 1973.51,896.10 1975.22,890.77"/>
    </edge>
    <edge id=":J105_4" function="internal">
        <lane id=":J105_4_0" index="0" speed="7.23" length="8.47" shape="1965.71,895.20 1967.82,894.90 1969.56,894.00 1970.94,892.49 1971.96,890.39"/>
        <lane id=":J105_4_1" index="1" speed="8.85" length="13.09" shape="1965.71,898.40 1968.87,897.92 1971.51,896.49 1973.62,894.11 1975.22,890.77"/>
    </edge>
    <edge id=":J19_0" function="internal">
        <lane id=":J19_0_0" index="0" speed="13.89" length="62.80" shape="-4.80,331.40 -4.80,268.60"/>
        <lane id=":J19_0_1" index="1" speed="13.89" length="62.80" shape="-1.60,331.40 -1.60,268.60"/>
    </edge>
    <edge id=":J19_2" function="internal">
        <lane id=":J19_2_0" index="0" speed="13.89" length="5.01" shape="-1.60,331.40 -0.89,326.44"/>
    </edge>
    <edge id=":J19_3" function="internal">
        <lane id=":J19_3_0" index="0" speed="3.65" length="1.44" shape="-1.60,331.40 -0.80,330.20"/>
    </edge>
    <edge id=":J19_11" function="internal">
        <lane id=":J19_11_0" index="0" speed="13.89" length="48.21" shape="-0.89,326.44 0.46,316.96 6.65,306.65 16.96,300.46 31.40,298.40"/>
    </edge>
    <edge id=":J19_12" function="internal">
        <lane id=":J19_12_0" index="0" speed="3.65" length="3.23" shape="-0.80,330.20 0.00,329.80 0.80,330.20 1.60,331.40"/>
    </edge>
    <edge id=":J19_4" function="internal">
        <lane id=":J19_4_0" index="0" speed="13.59" length="42.90" shape="31.40,304.80 19.76,306.46 11.45,311.45 6.46,319.76 4.80,331.40"/>
    </edge>
    <edge id=":J19_5" function="internal">
        <lane id=":J19_5_0" index="0" speed="13.89" length="53.22" shape="31.40,301.60 16.96,299.54 6.65,293.35 0.46,283.04 -1.60,268.60"/>
    </edge>
    <edge id=":J19_6" function="internal">
        <lane id=":J19_6_0" index="0" speed="3.65" length="4.67" shape="31.40,301.60 30.20,300.80 29.80,300.00 30.20,299.20 31.40,298.40"/>
    </edge>
    <edge id=":J19_7" function="internal">
        <lane id=":J19_7_0" index="0" speed="13.59" length="42.90" shape="4.80,268.60 6.46,280.24 11.45,288.55 19.76,293.54 31.40,295.20"/>
    </edge>
    <edge id=":J19_8" function="internal">
        <lane id=":J19_8_0" index="0" speed="13.89" length="62.80" shape="4.80,268.60 4.80,331.40"/>
        <lane id=":J19_8_1" index="1" speed="13.89" length="62.80" shape="1.60,268.60 1.60,331.40"/>
    </edge>
    <edge id=":J19_10" function="internal">
        <lane id=":J19_10_0" index="0" speed="3.65" length="1.44" shape="1.60,268.60 0.80,269.80"/>
    </edge>
    <edge id=":J19_13" function="internal">
        <lane id=":J19_13_0" index="0" speed="3.65" length="3.23" shape="0.80,269.80 0.00,270.20 -0.80,269.80 -1.60,268.60"/>
    </edge>
    <edge id=":J2_0" function="internal">
        <lane id=":J2_0_0" index="0" speed="7.23" length="8.47" shape="471.96,9.61 470.94,7.51 469.56,6.00 467.82,5.10 465.71,4.80"/>
        <lane id=":J2_0_1" index="1" speed="8.04" length="10.68" shape="471.96,9.61 470.52,6.11 469.00,3.60 467.40,2.10 465.71,1.60"/>
    </edge>
    <edge id=":J2_2" function="internal">
        <lane id=":J2_2_0" index="0" speed="13.89" length="19.48" shape="471.96,9.61 470.18,4.06 469.58,-0.00 470.18,-4.06 471.96,-9.61"/>
        <lane id=":J2_2_1" index="1" speed="13.89" length="19.48" shape="475.22,9.24 473.51,3.90 472.94,-0.00 473.51,-3.90 475.22,-9.23"/>
    </edge>
    <edge id=":J2_4" function="internal">
        <lane id=":J2_4_0" index="0" speed="7.23" length="8.47" shape="465.71,-4.80 467.82,-5.10 469.56,-6.00 470.94,-7.51 471.96,-9.61"/>
        <lane id=":J2_4_1" index="1" speed="8.85" length="13.09" shape="465.71,-1.60 468.87,-2.08 471.51,-3.51 473.62,-5.89 475.22,-9.23"/>
    </edge>
    <edge id=":J20_0" function="internal">
        <lane id=":J20_0_0" index="0" speed="8.96" length="18.06" shape="-4.80,6.40 -4.10,1.50 -2.00,-2.00 1.50,-4.10 6.40,-4.80"/>
        <lane id=":J20_0_1" index="1" speed="7.66" length="12.90" shape="-1.60,6.40 -1.10,2.90 0.40,0.40 2.90,-1.10 6.40,-1.60"/>
    </edge>
    <edge id=":J20_2" function="internal">
        <lane id=":J20_2_0" index="0" speed="3.90" length="2.58" shape="6.40,4.80 5.70,4.90 5.20,5.20 4.90,5.70 4.80,6.40"/>
        <lane id=":J20_2_1" index="1" speed="6.08" length="7.74" shape="6.40,1.60 4.30,1.90 2.80,2.80 1.90,4.30 1.60,6.40"/>
    </edge>
    <edge id=":J24_0" function="internal">
        <lane id=":J24_0_0" index="0" speed="3.90" length="2.58" shape="1995.20,6.40 1995.10,5.70 1994.80,5.20 1994.30,4.90 1993.60,4.80"/>
        <lane id=":J24_0_1" index="1" speed="6.08" length="7.74" shape="1998.40,6.40 1998.10,4.30 1997.20,2.80 1995.70,1.90 1993.60,1.60"/>
    </edge>
    <edge id=":J24_2" function="internal">
        <lane id=":J24_2_0" index="0" speed="8.96" length="18.06" shape="1993.60,-4.80 1998.50,-4.10 2002.00,-2.00 2004.10,1.50 2004.80,6.40"/>
        <lane id=":J24_2_1" index="1" speed="7.66" length="12.90" shape="1993.60,-1.60 1997.10,-1.10 1999.60,0.40 2001.10,2.90 2001.60,6.40"/>
    </edge>
    <edge id=":J3_0" function="internal">
        <lane id=":J3_0_0" index="0" speed="7.24" length="8.48" shape="509.59,28.05 507.49,29.07 505.98,30.45 505.07,32.20 504.77,34.30"/>
        <lane id=":J3_0_1" index="1" speed="8.05" length="10.68" shape="509.59,28.05 506.09,29.49 503.58,31.01 502.07,32.62 501.57,34.30"/>
    </edge>
    <edge id=":J3_2" function="internal">
        <lane id=":J3_2_0" index="0" speed="13.89" length="19.49" shape="509.59,28.05 504.03,29.83 499.98,30.42 495.92,29.82 490.36,28.03"/>
        <lane id=":J3_2_1" index="1" speed="13.89" length="19.49" shape="509.22,24.79 503.88,26.50 499.98,27.07 496.08,26.50 490.74,24.78"/>
    </edge>
    <edge id=":J3_4" function="internal">
        <lane id=":J3_4_0" index="0" speed="7.23" length="8.48" shape="495.17,34.29 494.87,32.19 493.97,30.44 492.47,29.06 490.36,28.03"/>
        <lane id=":J3_4_1" index="1" speed="8.86" length="13.10" shape="498.37,34.30 497.90,31.13 496.47,28.49 494.08,26.37 490.74,24.78"/>
    </edge>
    <edge id=":J30_0" function="internal">
        <lane id=":J30_0_0" index="0" speed="7.23" length="8.47" shape="534.29,904.80 532.18,905.10 530.44,906.00 529.06,907.51 528.04,909.61"/>
        <lane id=":J30_0_1" index="1" speed="8.85" length="13.09" shape="534.29,901.60 531.13,902.08 528.49,903.51 526.38,905.89 524.78,909.23"/>
    </edge>
    <edge id=":J30_2" function="internal">
        <lane id=":J30_2_0" index="0" speed="7.23" length="8.47" shape="528.04,890.39 529.06,892.49 530.44,894.00 532.18,894.90 534.29,895.20"/>
        <lane id=":J30_2_1" index="1" speed="8.05" length="10.67" shape="528.04,890.39 529.48,893.89 531.00,896.40 532.60,897.90 534.29,898.40"/>
    </edge>
    <edge id=":J30_4" function="internal">
        <lane id=":J30_4_0" index="0" speed="13.89" length="19.48" shape="528.04,890.39 529.82,895.94 530.42,900.00 529.82,904.06 528.04,909.61"/>
        <lane id=":J30_4_1" index="1" speed="13.89" length="19.48" shape="524.78,890.77 526.49,896.10 527.07,900.00 526.49,903.90 524.78,909.23"/>
    </edge>
    <edge id=":J31_0" function="internal">
        <lane id=":J31_0_0" index="0" speed="7.23" length="8.47" shape="471.96,909.61 470.94,907.51 469.56,906.00 467.82,905.10 465.71,904.80"/>
        <lane id=":J31_0_1" index="1" speed="8.05" length="10.67" shape="471.96,909.61 470.52,906.11 469.00,903.60 467.40,902.10 465.71,901.60"/>
    </edge>
    <edge id=":J31_2" function="internal">
        <lane id=":J31_2_0" index="0" speed="13.89" length="19.48" shape="471.96,909.61 470.18,904.06 469.58,900.00 470.18,895.94 471.96,890.39"/>
        <lane id=":J31_2_1" index="1" speed="13.89" length="19.48" shape="475.22,909.23 473.51,903.90 472.93,900.00 473.51,896.10 475.22,890.77"/>
    </edge>
    <edge id=":J31_4" function="internal">
        <lane id=":J31_4_0" index="0" speed="7.23" length="8.47" shape="465.71,895.20 467.82,894.90 469.56,894.00 470.94,892.49 471.96,890.39"/>
        <lane id=":J31_4_1" index="1" speed="8.85" length="13.09" shape="465.71,898.40 468.87,897.92 471.51,896.49 473.62,894.11 475.22,890.77"/>
    </edge>
    <edge id=":J35_0" function="internal">
        <lane id=":J35_0_0" index="0" speed="7.27" length="8.53" shape="509.63,628.04 507.52,629.06 506.01,630.46 505.10,632.22 504.79,634.35"/>
        <lane id=":J35_0_1" index="1" speed="8.08" length="10.73" shape="509.63,628.04 506.12,629.48 503.61,631.02 502.10,632.63 501.59,634.34"/>
    </edge>
    <edge id=":J35_2" function="internal">
        <lane id=":J35_2_0" index="0" speed="13.89" length="19.52" shape="509.63,628.04 504.07,629.83 500.00,630.42 495.94,629.83 490.37,628.04"/>
        <lane id=":J35_2_1" index="1" speed="13.89" length="19.52" shape="509.26,624.78 503.91,626.50 500.00,627.07 496.09,626.50 490.75,624.78"/>
    </edge>
    <edge id=":J35_4" function="internal">
        <lane id=":J35_4_0" index="0" speed="7.24" length="8.50" shape="495.19,634.32 494.90,632.21 494.00,630.45 492.49,629.07 490.37,628.04"/>
        <lane id=":J35_4_1" index="1" speed="8.86" length="13.13" shape="498.39,634.33 497.92,631.16 496.49,628.51 494.10,626.38 490.75,624.78"/>
    </edge>
    <edge id=":J36_0" function="internal">
        <lane id=":J36_0_0" index="0" speed="7.23" length="8.47" shape="534.29,604.80 532.18,605.10 530.44,606.00 529.06,607.51 528.04,609.61"/>
        <lane id=":J36_0_1" index="1" speed="8.85" length="13.09" shape="534.29,601.60 531.13,602.08 528.49,603.51 526.38,605.90 524.78,609.24"/>
    </edge>
    <edge id=":J36_2" function="internal">
        <lane id=":J36_2_0" index="0" speed="7.23" length="8.47" shape="528.04,590.39 529.06,592.49 530.44,594.00 532.18,594.90 534.29,595.20"/>
        <lane id=":J36_2_1" index="1" speed="8.05" length="10.67" shape="528.04,590.39 529.48,593.89 531.00,596.40 532.60,597.90 534.29,598.40"/>
    </edge>
    <edge id=":J36_4" function="internal">
        <lane id=":J36_4_0" index="0" speed="13.89" length="19.48" shape="528.04,590.39 529.82,595.94 530.42,600.00 529.82,604.06 528.04,609.61"/>
        <lane id=":J36_4_1" index="1" speed="13.89" length="19.48" shape="524.78,590.77 526.49,596.10 527.06,600.00 526.49,603.90 524.78,609.24"/>
    </edge>
    <edge id=":J37_0" function="internal">
        <lane id=":J37_0_0" index="0" speed="7.23" length="8.47" shape="471.96,609.61 470.94,607.51 469.55,606.00 467.81,605.10 465.71,604.80"/>
        <lane id=":J37_0_1" index="1" speed="8.05" length="10.67" shape="471.96,609.61 470.52,606.11 468.99,603.60 467.39,602.10 465.71,601.60"/>
    </edge>
    <edge id=":J37_2" function="internal">
        <lane id=":J37_2_0" index="0" speed="13.89" length="19.48" shape="471.96,609.61 470.17,604.06 469.58,600.00 470.18,595.94 471.96,590.39"/>
        <lane id=":J37_2_1" index="1" speed="13.89" length="19.48" shape="475.22,609.24 473.50,603.90 472.93,600.00 473.50,596.10 475.22,590.76"/>
    </edge>
    <edge id=":J37_4" function="internal">
        <lane id=":J37_4_0" index="0" speed="7.23" length="8.47" shape="465.71,595.20 467.81,594.90 469.56,594.00 470.94,592.49 471.96,590.39"/>
        <lane id=":J37_4_1" index="1" speed="8.86" length="13.09" shape="465.71,598.40 468.87,597.92 471.51,596.49 473.62,594.11 475.22,590.76"/>
    </edge>
    <edge id=":J39_0" function="internal">
        <lane id=":J39_0_0" index="0" disallow="all" speed="6.24" length="6.12" shape="534.65,304.80 532.45,304.91 530.79,305.24 529.67,305.79 529.09,306.57"/>
        <lane id=":J39_0_1" index="1" speed="8.03" length="10.62" shape="534.65,301.60 531.40,301.89 528.85,302.75 527.00,304.18 525.85,306.20"/>
    </edge>
    <edge id=":J39_2" function="internal">
        <lane id=":J39_2_0" index="0" speed="7.35" length="8.79" shape="528.04,290.39 529.08,292.49 530.53,294.00 532.39,294.90 534.65,295.20"/>
        <lane id=":J39_2_1" index="1" speed="8.15" length="10.96" shape="528.04,290.39 529.50,293.89 531.09,296.40 532.81,297.90 534.65,298.40"/>
    </edge>
    <edge id=":J39_4" function="internal">
        <lane id=":J39_4_0" index="0" speed="13.89" length="16.38" shape="528.04,290.39 529.70,295.07 530.56,298.48 530.42,301.88 529.09,306.57"/>
        <lane id=":J39_4_1" index="1" speed="13.89" length="16.38" shape="524.78,290.76 526.38,295.23 527.23,298.48 527.12,301.73 525.85,306.20"/>
    </edge>
    <edge id=":J4_0" function="internal">
        <lane id=":J4_0_0" index="0" speed="7.77" length="13.32" shape="2004.80,1193.60 2004.50,1198.50 2003.60,1202.00 2002.10,1204.10 2000.00,1204.80"/>
        <lane id=":J4_0_1" index="1" speed="6.32" length="8.46" shape="2001.60,1193.60 2001.50,1197.10 2001.20,1199.60 2000.70,1201.10 2000.00,1201.60"/>
    </edge>
    <edge id=":J4_2" function="internal">
        <lane id=":J4_2_0" index="0" disallow="all" speed="3.90" length="2.58" shape="2000.00,1195.20 1999.30,1195.10 1998.80,1194.80 1998.50,1194.30 1998.40,1193.60"/>
        <lane id=":J4_2_1" index="1" speed="5.21" length="5.42" shape="2000.00,1198.40 2000.70,1198.10 2001.20,1197.20 2001.50,1195.70 2001.60,1193.60"/>
    </edge>
    <edge id=":J40_0" function="internal">
        <lane id=":J40_0_0" index="0" speed="7.23" length="8.47" shape="471.96,309.61 470.94,307.51 469.56,306.00 467.82,305.10 465.71,304.80"/>
        <lane id=":J40_0_1" index="1" speed="8.04" length="10.68" shape="471.96,309.61 470.52,306.11 469.00,303.60 467.40,302.10 465.71,301.60"/>
    </edge>
    <edge id=":J40_2" function="internal">
        <lane id=":J40_2_0" index="0" speed="13.89" length="19.48" shape="471.96,309.61 470.18,304.06 469.58,300.00 470.18,295.94 471.96,290.39"/>
        <lane id=":J40_2_1" index="1" speed="13.89" length="19.48" shape="475.22,309.24 473.51,303.90 472.94,300.00 473.51,296.10 475.22,290.77"/>
    </edge>
    <edge id=":J40_4" function="internal">
        <lane id=":J40_4_0" index="0" speed="7.23" length="8.47" shape="465.71,295.20 467.82,294.90 469.56,294.00 470.94,292.49 471.96,290.39"/>
        <lane id=":J40_4_1" index="1" speed="8.85" length="13.09" shape="465.71,298.40 468.87,297.92 471.51,296.49 473.62,294.11 475.22,290.77"/>
    </edge>
    <edge id=":J41_0" function="internal">
        <lane id=":J41_0_0" index="0" speed="7.25" length="8.50" shape="509.59,328.05 507.48,329.07 505.97,330.46 505.06,332.21 504.76,334.32"/>
        <lane id=":J41_0_1" index="1" speed="8.07" length="10.70" shape="509.59,328.05 506.08,329.49 503.57,331.02 502.06,332.63 501.56,334.31"/>
    </edge>
    <edge id=":J41_2" function="internal">
        <lane id=":J41_2_0" index="0" speed="13.89" length="19.50" shape="509.59,328.05 504.03,329.83 499.97,330.42 495.91,329.82 490.35,328.03"/>
        <lane id=":J41_2_1" index="1" speed="13.89" length="19.50" shape="509.22,324.79 503.87,326.50 499.97,327.07 496.07,326.49 490.73,324.77"/>
    </edge>
    <edge id=":J41_4" function="internal">
        <lane id=":J41_4_0" index="0" speed="7.23" length="8.49" shape="495.16,334.30 494.86,332.19 493.96,330.44 492.46,329.05 490.35,328.03"/>
        <lane id=":J41_4_1" index="1" speed="8.86" length="13.11" shape="498.36,334.31 497.89,331.14 496.46,328.49 494.07,326.37 490.73,324.77"/>
    </edge>
    <edge id=":J43_0" function="internal">
        <lane id=":J43_0_0" index="0" speed="7.23" length="8.47" shape="534.29,1204.80 532.18,1205.10 530.44,1206.00 529.06,1207.51 528.04,1209.61"/>
        <lane id=":J43_0_1" index="1" speed="8.85" length="13.09" shape="534.29,1201.60 531.13,1202.08 528.49,1203.51 526.38,1205.89 524.78,1209.23"/>
    </edge>
    <edge id=":J43_2" function="internal">
        <lane id=":J43_2_0" index="0" speed="7.23" length="8.47" shape="528.04,1190.39 529.06,1192.49 530.44,1194.00 532.18,1194.90 534.29,1195.20"/>
        <lane id=":J43_2_1" index="1" speed="8.05" length="10.67" shape="528.04,1190.39 529.48,1193.89 531.00,1196.40 532.60,1197.90 534.29,1198.40"/>
    </edge>
    <edge id=":J43_4" function="internal">
        <lane id=":J43_4_0" index="0" speed="13.89" length="19.48" shape="528.04,1190.39 529.82,1195.94 530.42,1200.00 529.82,1204.06 528.04,1209.61"/>
        <lane id=":J43_4_1" index="1" speed="13.89" length="19.48" shape="524.78,1190.77 526.49,1196.10 527.07,1200.00 526.49,1203.90 524.78,1209.23"/>
    </edge>
    <edge id=":J44_0" function="internal">
        <lane id=":J44_0_0" index="0" speed="7.23" length="8.47" shape="504.80,1165.71 505.10,1167.81 506.00,1169.56 507.51,1170.94 509.61,1171.96"/>
        <lane id=":J44_0_1" index="1" speed="8.86" length="13.09" shape="501.60,1165.71 502.08,1168.87 503.51,1171.51 505.89,1173.62 509.23,1175.22"/>
    </edge>
    <edge id=":J44_2" function="internal">
        <lane id=":J44_2_0" index="0" speed="7.23" length="8.47" shape="490.38,1171.96 492.49,1170.94 493.99,1169.56 494.90,1167.81 495.20,1165.71"/>
        <lane id=":J44_2_1" index="1" speed="8.05" length="10.68" shape="490.38,1171.96 493.89,1170.52 496.39,1169.00 497.90,1167.39 498.40,1165.71"/>
    </edge>
    <edge id=":J44_4" function="internal">
        <lane id=":J44_4_0" index="0" speed="13.89" length="19.48" shape="490.38,1171.96 495.94,1170.18 500.00,1169.58 504.06,1170.18 509.61,1171.96"/>
        <lane id=":J44_4_1" index="1" speed="13.89" length="19.48" shape="490.76,1175.22 496.10,1173.51 500.00,1172.93 503.90,1173.51 509.23,1175.22"/>
    </edge>
    <edge id=":J45_0" function="internal">
        <lane id=":J45_0_0" index="0" disallow="all" speed="6.24" length="6.12" shape="470.91,1206.57 470.34,1205.79 469.22,1205.24 467.55,1204.91 465.35,1204.80"/>
        <lane id=":J45_0_1" index="1" speed="7.03" length="7.99" shape="470.91,1206.57 469.92,1204.39 468.66,1202.84 467.14,1201.91 465.35,1201.60"/>
    </edge>
    <edge id=":J45_2" function="internal">
        <lane id=":J45_2_0" index="0" speed="13.89" length="16.38" shape="470.91,1206.57 469.58,1201.88 469.44,1198.47 470.30,1195.07 471.96,1190.39"/>
        <lane id=":J45_2_1" index="1" speed="13.89" length="16.38" shape="474.16,1206.19 472.89,1201.73 472.77,1198.48 473.62,1195.23 475.22,1190.77"/>
    </edge>
    <edge id=":J45_4" function="internal">
        <lane id=":J45_4_0" index="0" speed="7.35" length="8.79" shape="465.35,1195.20 467.61,1194.90 469.47,1194.00 470.92,1192.49 471.96,1190.39"/>
        <lane id=":J45_4_1" index="1" speed="8.95" length="13.40" shape="465.35,1198.40 468.67,1197.92 471.42,1196.49 473.60,1194.11 475.22,1190.77"/>
    </edge>
    <edge id=":J46_0" function="internal">