<?xml version="1.0" encoding="UTF-8"?>

<!-- generated on 2026-04-09T12:02:24.470523+00:00 by Eclipse SUMO netconvert 1.26.0
<netconvertConfiguration xmlns:xsi="http://www.w3.org/2001/XMLSchema-instance" xsi:noNamespaceSchemaLocation="http://sumo.dlr.de/xsd/netconvertConfiguration.xsd">

    <input>
        <node-files value="manhattan.nod.xml"/>
        <edge-files value="manhattan.edg.xml"/>
    </input>

    <output>
        <output-file value="manhattan.net.xml"/>
    </output>

    <processing>
        <offset.disable-normalization value="true"/>
    </processing>

    <junctions>
        <no-turnarounds value="true"/>
    </junctions>

</netconvertConfiguration>
-->

<net version="1.20" junctionCornerDetail="5" limitTurnSpeed="5.50" xmlns:xsi="http://www.w3.org/2001/XMLSchema-instance" xsi:noNamespaceSchemaLocation="http://sumo.dlr.de/xsd/net_file.xsd">

    <location netOffset="0.00,0.00" convBoundary="0.00,-1200.00,2000.00,0.00" origBoundary="0.00,-1200.00,2000.00,0.00" projParameter="!"/>

    <edge id=":J0_0" function="internal">
        <lane id=":J0_0_0" index="0" speed="9.84" length="21.99" shape="10.40,4.80 3.75,4.05 -1.00,1.80 -3.85,-1.95 -4.80,-7.20"/>
        <lane id=":J0_0_1" index="1" speed="8.67" length="16.85" shape="10.40,1.60 5.15,1.05 1.40,-0.60 -0.85,-3.35 -1.60,-7.20"/>
    </edge>
    <edge id=":J0_2" function="internal">
        <lane id=":J0_2_0" index="0" speed="6.51" length="9.03" shape="4.80,-7.20 5.15,-4.75 6.20,-3.00 7.95,-1.95 10.40,-1.60"/>
    </edge>
    <edge id=":J1_0" function="internal">
        <lane id=":J1_0_0" index="0" speed="13.89" length="17.60" shape="510.40,4.80 492.80,4.80"/>
        <lane id=":J1_0_1" index="1" speed="13.89" length="17.60" shape="510.40,1.60 492.80,1.60"/>
    </edge>
    <edge id=":J1_2" function="internal">
        <lane id=":J1_2_0" index="0" speed="9.26" length="19.35" shape="510.40,1.60 505.15,0.85 501.40,-1.40 499.15,-5.15 498.40,-10.40"/>
    </edge>
    <edge id=":J1_3" function="internal">
        <lane id=":J1_3_0" index="0" speed="6.51" length="9.03" shape="504.80,-10.40 505.15,-7.95 506.20,-6.20 507.95,-5.15 510.40,-4.80"/>
    </edge>
    <edge id=":J1_4" function="internal">
        <lane id=":J1_4_0" index="0" speed="8.67" length="2.85" shape="501.60,-10.40 501.30,-7.56"/>
    </edge>
    <edge id=":J1_8" function="internal">
        <lane id=":J1_8_0" index="0" speed="8.67" length="14.00" shape="501.30,-7.56 501.05,-5.15 499.40,-1.40 496.65,0.85 492.80,1.60"/>
    </edge>
    <edge id=":J1_5" function="internal">
        <lane id=":J1_5_0" index="0" speed="5.56" length="11.73" shape="492.80,-1.60 495.25,-2.15 497.00,-3.80 498.05,-6.55 498.40,-10.40"/>
    </edge>
    <edge id=":J1_6" function="internal">
        <lane id=":J1_6_0" index="0" speed="9.72" length="17.77" shape="492.80,-1.60 496.40,-2.10 500.12,-3.20 504.58,-4.30 510.40,-4.80"/>
        <lane id=":J1_6_1" index="1" speed="9.72" length="17.77" shape="492.80,-1.60 510.40,-1.60"/>
    </edge>
    <edge id=":J10_0" function="internal">
        <lane id=":J10_0_0" index="0" speed="13.89" length="20.80" shape="-4.80,-589.60 -4.80,-610.40"/>
        <lane id=":J10_0_1" index="1" speed="13.89" length="20.80" shape="-1.60,-589.60 -1.60,-610.40"/>
    </edge>
    <edge id=":J10_2" function="internal">
        <lane id=":J10_2_0" index="0" speed="9.26" length="5.01" shape="-1.60,-589.60 -0.89,-594.56"/>
    </edge>
    <edge id=":J10_8" function="internal">
        <lane id=":J10_8_0" index="0" speed="9.26" length="14.34" shape="-0.89,-594.56 -0.85,-594.85 1.40,-598.60 5.15,-600.85 10.40,-601.60"/>
    </edge>
    <edge id=":J10_3" function="internal">
        <lane id=":J10_3_0" index="0" speed="6.51" length="9.03" shape="10.40,-595.20 7.95,-594.85 6.20,-593.80 5.15,-592.05 4.80,-589.60"/>
    </edge>
    <edge id=":J10_4" function="internal">
        <lane id=":J10_4_0" index="0" speed="9.26" length="19.35" shape="10.40,-598.40 5.15,-599.15 1.40,-601.40 -0.85,-605.15 -1.60,-610.40"/>
    </edge>
    <edge id=":J10_5" function="internal">
        <lane id=":J10_5_0" index="0" speed="6.51" length="9.03" shape="4.80,-610.40 5.15,-607.95 6.20,-606.20 7.95,-605.15 10.40,-604.80"/>
    </edge>
    <edge id=":J10_6" function="internal">
        <lane id=":J10_6_0" index="0" speed="13.89" length="20.80" shape="4.80,-610.40 4.80,-589.60"/>
        <lane id=":J10_6_1" index="1" speed="13.89" length="20.80" shape="1.60,-610.40 1.60,-589.60"/>
    </edge>
    <edge id=":J11_0" function="internal">
        <lane id=":J11_0_0" index="0" speed="13.89" length="0.10" shape="500.00,-595.20 500.00,-595.20"/>
        <lane id=":J11_0_1" index="1" speed="13.89" length="0.10" shape="500.00,-598.40 500.00,-598.40"/>
    </edge>
    <edge id=":J11_2" function="internal">
        <lane id=":J11_2_0" index="0" speed="13.89" length="0.10" shape="500.00,-604.80 500.00,-604.80"/>
        <lane id=":J11_2_1" index="1" speed="13.89" length="0.10" shape="500.00,-601.60 500.00,-601.60"/>
    </edge>
    <edge id=":J12_0" function="internal">
        <lane id=":J12_0_0" index="0" speed="13.89" length="0.10" shape="1000.00,-595.20 1000.00,-595.20"/>
        <lane id=":J12_0_1" index="1" speed="13.89" length="0.10" shape="1000.00,-598.40 1000.00,-598.40"/>
    </edge>
    <edge id=":J12_2" function="internal">
        <lane id=":J12_2_0" index="0" speed="13.89" length="0.10" shape="1000.00,-604.80 1000.00,-604.80"/>
        <lane id=":J12_2_1" index="1" speed="13.89" length="0.10" shape="1000.00,-601.60 1000.00,-601.60"/>
    </edge>
    <edge id=":J13_0" function="internal">
        <lane id=":J13_0_0" index="0" speed="6.51" length="9.03" shape="1495.20,-589.60 1494.85,-592.05 1493.80,-593.80 1492.05,-594.85 1489.60,-595.20"/>
    </edge>
    <edge id=":J13_1" function="internal">
        <lane id=":J13_1_0" index="0" speed="13.89" length="20.80" shape="1495.20,-589.60 1495.20,-610.40"/>
        <lane id=":J13_1_1" index="1" speed="13.89" length="20.80" shape="1498.40,-589.60 1498.40,-610.40"/>
    </edge>
    <edge id=":J13_3" function="internal">
        <lane id=":J13_3_0" index="0" speed="9.26" length="5.01" shape="1498.40,-589.60 1499.11,-594.56"/>
    </edge>
    <edge id=":J13_16" function="internal">
        <lane id=":J13_16_0" index="0" speed="9.26" length="14.34" shape="1499.11,-594.56 1499.15,-594.85 1501.40,-598.60 1505.15,-600.85 1510.40,-601.60"/>
    </edge>
    <edge id=":J13_4" function="internal">
        <lane id=":J13_4_0" index="0" speed="6.51" length="9.03" shape="1510.40,-595.20 1507.95,-594.85 1506.20,-593.80 1505.15,-592.05 1504.80,-589.60"/>
    </edge>
    <edge id=":J13_5" function="internal">
        <lane id=":J13_5_0" index="0" speed="13.89" length="20.80" shape="1510.40,-595.20 1489.60,-595.20"/>
        <lane id=":J13_5_1" index="1" speed="13.89" length="20.80" shape="1510.40,-598.40 1489.60,-598.40"/>
    </edge>
    <edge id=":J13_7" function="internal">
        <lane id=":J13_7_0" index="0" speed="9.26" length="19.35" shape="1510.40,-598.40 1505.15,-599.15 1501.40,-601.40 1499.15,-605.15 1498.40,-610.40"/>
    </edge>
    <edge id=":J13_8" function="internal">
        <lane id=":J13_8_0" index="0" speed="6.51" length="9.03" shape="1504.80,-610.40 1505.15,-607.95 1506.20,-606.20 1507.95,-605.15 1510.40,-604.80"/>
    </edge>
    <edge id=":J13_9" function="internal">
        <lane id=":J13_9_0" index="0" speed="13.89" length="20.80" shape="1504.80,-610.40 1504.80,-589.60"/>
        <lane id=":J13_9_1" index="1" speed="13.89" length="20.80" shape="1501.60,-610.40 1501.60,-589.60"/>
    </edge>
    <edge id=":J13_11" function="internal">
        <lane id=":J13_11_0" index="0" speed="9.26" length="5.01" shape="1501.60,-610.40 1500.89,-605.44"/>
    </edge>
    <edge id=":J13_17" function="internal">
        <lane id=":J13_17_0" index="0" speed="9.26" length="14.34" shape="1500.89,-605.44 1500.85,-605.15 1498.60,-601.40 1494.85,-599.15 1489.60,-598.40"/>
    </edge>
    <edge id=":J13_12" function="internal">
        <lane id=":J13_12_0" index="0" speed="6.51" length="9.03" shape="1489.60,-604.80 1492.05,-605.15 1493.80,-606.20 1494.85,-607.95 1495.20,-610.40"/>
    </edge>
    <edge id=":J13_13" function="internal">
        <lane id=":J13_13_0" index="0" speed="13.89" length="20.80" shape="1489.60,-604.80 1510.40,-604.80"/>
        <lane id=":J13_13_1" index="1" speed="13.89" length="20.80" shape="1489.60,-601.60 1510.40,-601.60"/>
    </edge>
    <edge id=":J13_15" function="internal">
        <lane id=":J13_15_0" index="0" speed="9.26" length="19.35" shape="1489.60,-601.60 1494.85,-600.85 1498.60,-598.60 1500.85,-594.85 1501.60,-589.60"/>
    </edge>
    <edge id=":J14_0" function="internal">
        <lane id=":J14_0_0" index="0" speed="6.51" length="9.03" shape="1995.20,-589.60 1994.85,-592.05 1993.80,-593.80 1992.05,-594.85 1989.60,-595.20"/>
    </edge>
    <edge id=":J14_1" function="internal">
        <lane id=":J14_1_0" index="0" speed="13.89" length="20.80" shape="1995.20,-589.60 1995.20,-610.40"/>
        <lane id=":J14_1_1" index="1" speed="13.89" length="20.80" shape="1998.40,-589.60 1998.40,-610.40"/>
    </edge>
    <edge id=":J14_3" function="internal">
        <lane id=":J14_3_0" index="0" speed="13.89" length="20.80" shape="2004.80,-610.40 2004.80,-589.60"/>
        <lane id=":J14_3_1" index="1" speed="13.89" length="20.80" shape="2001.60,-610.40 2001.60,-589.60"/>
    </edge>
    <edge id=":J14_5" function="internal">
        <lane id=":J14_5_0" index="0" speed="9.26" length="5.01" shape="2001.60,-610.40 2000.89,-605.44"/>
    </edge>
    <edge id=":J14_8" function="internal">
        <lane id=":J14_8_0" index="0" speed="9.26" length="14.34" shape="2000.89,-605.44 2000.85,-605.15 1998.60,-601.40 1994.85,-599.15 1989.60,-598.40"/>
    </edge>
    <edge id=":J14_6" function="internal">
        <lane id=":J14_6_0" index="0" speed="6.51" length="9.03" shape="1989.60,-604.80 1992.05,-605.15 1993.80,-606.20 1994.85,-607.95 1995.20,-610.40"/>
    </edge>
    <edge id=":J14_7" function="internal">
        <lane id=":J14_7_0" index="0" speed="9.26" length="19.35" shape="1989.60,-601.60 1994.85,-600.85 1998.60,-598.60 2000.85,-594.85 2001.60,-589.60"/>
    </edge>
    <edge id=":J15_0" function="internal">
        <lane id=":J15_0_0" index="0" speed="6.51" length="9.03" shape="1995.20,-889.60 1994.85,-892.05 1993.80,-893.80 1992.05,-894.85 1989.60,-895.20"/>
    </edge>
    <edge id=":J15_1" function="internal">
        <lane id=":J15_1_0" index="0" speed="13.89" length="20.80" shape="1995.20,-889.60 1995.20,-910.40"/>
        <lane id=":J15_1_1" index="1" speed="13.89" length="20.80" shape="1998.40,-889.60 1998.40,-910.40"/>
    </edge>
    <edge id=":J15_3" function="internal">
        <lane id=":J15_3_0" index="0" speed="13.89" length="20.80" shape="2004.80,-910.40 2004.80,-889.60"/>
        <lane id=":J15_3_1" index="1" speed="13.89" length="20.80" shape="2001.60,-910.40 2001.60,-889.60"/>
    </edge>
    <edge id=":J15_5" function="internal">
        <lane id=":J15_5_0" index="0" speed="9.26" length="5.01" shape="2001.60,-910.40 2000.89,-905.44"/>
    </edge>
    <edge id=":J15_8" function="internal">
        <lane id=":J15_8_0" index="0" speed="9.26" length="14.34" shape="2000.89,-905.44 2000.85,-905.15 1998.60,-901.40 1994.85,-899.15 1989.60,-898.40"/>
    </edge>
    <edge id=":J15_6" function="internal">
        <lane id=":J15_6_0" index="0" speed="6.51" length="9.03" shape="1989.60,-904.80 1992.05,-905.15 1993.80,-906.20 1994.85,-907.95 1995.20,-910.40"/>
    </edge>
    <edge id=":J15_7" function="internal">
        <lane id=":J15_7_0" index="0" speed="9.26" length="19.35" shape="1989.60,-901.60 1994.85,-900.85 1998.60,-898.60 2000.85,-894.85 2001.60,-889.60"/>
    </edge>
    <edge id=":J16_0" function="internal">
        <lane id=":J16_0_0" index="0" speed="6.51" length="9.03" shape="1495.20,-889.60 1494.85,-892.05 1493.80,-893.80 1492.05,-894.85 1489.60,-895.20"/>
    </edge>
    <edge id=":J16_1" function="internal">
        <lane id=":J16_1_0" index="0" speed="13.89" length="20.80" shape="1495.20,-889.60 1495.20,-910.40"/>
        <lane id=":J16_1_1" index="1" speed="13.89" length="20.80" shape="1498.40,-889.60 1498.40,-910.40"/>
    </edge>
    <edge id=":J16_3" function="internal">
        <lane id=":J16_3_0" index="0" speed="9.26" length="5.01" shape="1498.40,-889.60 1499.11,-894.56"/>
    </edge>
    <edge id=":J16_16" function="internal">
        <lane id=":J16_16_0" index="0" speed="9.26" length="14.34" shape="1499.11,-894.56 1499.15,-894.85 1501.40,-898.60 1505.15,-900.85 1510.40,-901.60"/>
    </edge>
    <edge id=":J16_4" function="internal">
        <lane id=":J16_4_0" index="0" speed="6.51" length="9.03" shape="1510.40,-895.20 1507.95,-894.85 1506.20,-893.80 1505.15,-892.05 1504.80,-889.60"/>
    </edge>
    <edge id=":J16_5" function="internal">
        <lane id=":J16_5_0" index="0" speed="13.89" length="20.80" shape="1510.40,-895.20 1489.60,-895.20"/>
        <lane id=":J16_5_1" index="1" speed="13.89" length="20.80" shape="1510.40,-898.40 1489.60,-898.40"/>
    </edge>
    <edge id=":J16_7" function="internal">
        <lane id=":J16_7_0" index="0" speed="9.26" length="19.35" shape="1510.40,-898.40 1505.15,-899.15 1501.40,-901.40 1499.15,-905.15 1498.40,-910.40"/>
    </edge>
    <edge id=":J16_8" function="internal">
        <lane id=":J16_8_0" index="0" speed="6.51" length="9.03" shape="1504.80,-910.40 1505.15,-907.95 1506.20,-906.20 1507.95,-905.15 1510.40,-904.80"/>
    </edge>
    <edge id=":J16_9" function="internal">
        <lane id=":J16_9_0" index="0" speed="13.89" length="20.80" shape="1504.80,-910.40 1504.80,-889.60"/>
        <lane id=":J16_9_1" index="1" speed="13.89" length="20.80" shape="1501.60,-910.40 1501.60,-889.60"/>
    </edge>
    <edge id=":J16_11" function="internal">
        <lane id=":J16_11_0" index="0" speed="9.26" length="5.01" shape="1501.60,-910.40 1500.89,-905.44"/>
    </edge>
    <edge id=":J16_17" function="internal">
        <lane id=":J16_17_0" index="0" speed="9.26" length="14.34" shape="1500.89,-905.44 1500.85,-905.15 1498.60,-901.40 1494.85,-899.15 1489.60,-898.40"/>
    </edge>
    <edge id=":J16_12" function="internal">
        <lane id=":J16_12_0" index="0" speed="6.51" length="9.03" shape="1489.60,-904.80 1492.05,-905.15 1493.80,-906.20 1494.85,-907.95 1495.20,-910.40"/>
    </edge>
    <edge id=":J16_13" function="internal">
        <lane id=":J16_13_0" index="0" speed="13.89" length="20.80" shape="1489.60,-904.80 1510.40,-904.80"/>
        <lane id=":J16_13_1" index="1" speed="13.89" length="20.80" shape="1489.60,-901.60 1510.40,-901.60"/>
    </edge>
    <edge id=":J16_15" function="internal">
        <lane id=":J16_15_0" index="0" speed="9.26" length="19.35" shape="1489.60,-901.60 1494.85,-900.85 1498.60,-898.60 1500.85,-894.85 1501.60,-889.60"/>
    </edge>
    <edge id=":J17_0" function="internal">
        <lane id=":J17_0_0" index="0" speed="13.89" length="0.10" shape="1000.00,-895.20 1000.00,-895.20"/>
        <lane id=":J17_0_1" index="1" speed="13.89" length="0.10" shape="1000.00,-898.40 1000.00,-898.40"/>
    </edge>
    <edge id=":J17_2" function="internal">
        <lane id=":J17_2_0" index="0" speed="13.89" length="0.10" shape="1000.00,-904.80 1000.00,-904.80"/>
        <lane id=":J17_2_1" index="1" speed="13.89" length="0.10" shape="1000.00,-901.60 1000.00,-901.60"/>
    </edge>
    <edge id=":J18_0" function="internal">
        <lane id=":J18_0_0" index="0" speed="13.89" length="0.10" shape="500.00,-895.20 500.00,-895.20"/>
        <lane id=":J18_0_1" index="1" speed="13.89" length="0.10" shape="500.00,-898.40 500.00,-898.40"/>
    </edge>
    <edge id=":J18_2" function="internal">
        <lane id=":J18_2_0" index="0" speed="13.89" length="0.10" shape="500.00,-904.80 500.00,-904.80"/>
        <lane id=":J18_2_1" index="1" speed="13.89" length="0.10" shape="500.00,-901.60 500.00,-901.60"/>
    </edge>
    <edge id=":J19_0" function="internal">
        <lane id=":J19_0_0" index="0" speed="13.89" length="20.80" shape="-4.80,-889.60 -4.80,-910.40"/>
        <lane id=":J19_0_1" index="1" speed="13.89" length="20.80" shape="-1.60,-889.60 -1.60,-910.40"/>
    </edge>
    <edge id=":J19_2" function="internal">
        <lane id=":J19_2_0" index="0" speed="9.26" length="5.01" shape="-1.60,-889.60 -0.89,-894.56"/>
    </edge>
    <edge id=":J19_8" function="internal">
        <lane id=":J19_8_0" index="0" speed="9.26" length="14.34" shape="-0.89,-894.56 -0.85,-894.85 1.40,-898.60 5.15,-900.85 10.40,-901.60"/>
    </edge>
    <edge id=":J19_3" function="internal">
        <lane id=":J19_3_0" index="0" speed="6.51" length="9.03" shape="10.40,-895.20 7.95,-894.85 6.20,-893.80 5.15,-892.05 4.80,-889.60"/>
    </edge>
    <edge id=":J19_4" function="internal">
        <lane id=":J19_4_0" index="0" speed="9.26" length="19.35" shape="10.40,-898.40 5.15,-899.15 1.40,-901.40 -0.85,-905.15 -1.60,-910.40"/>
    </edge>
    <edge id=":J19_5" function="internal">
        <lane id=":J19_5_0" index="0" speed="6.51" length="9.03" shape="4.80,-910.40 5.15,-907.95 6.20,-906.20 7.95,-905.15 10.40,-904.80"/>
    </edge>
    <edge id=":J19_6" function="internal">
        <lane id=":J19_6_0" index="0" speed="13.89" length="20.80" shape="4.80,-910.40 4.80,-889.60"/>
        <lane id=":J19_6_1" index="1" speed="13.89" length="20.80" shape="1.60,-910.40 1.60,-889.60"/>
    </edge>
    <edge id=":J2_0" function="internal">
        <lane id=":J2_0_0" index="0" speed="13.89" length="20.80" shape="1010.40,4.80 989.60,4.80"/>
        <lane id=":J2_0_1" index="1" speed="13.89" length="20.80" shape="1010.40,1.60 989.60,1.60"/>
    </edge>
    <edge id=":J2_2" function="internal">
        <lane id=":J2_2_0" index="0" speed="9.26" length="5.01" shape="1010.40,1.60 1005.44,0.89"/>
    </edge>
    <edge id=":J2_8" function="internal">
        <lane id=":J2_8_0" index="0" speed="9.26" length="14.34" shape="1005.44,0.89 1005.15,0.85 1001.40,-1.40 999.15,-5.15 998.40,-10.40"/>
    </edge>
    <edge id=":J2_3" function="internal">
        <lane id=":J2_3_0" index="0" speed="7.33" length="11.73" shape="1004.80,-10.40 1005.15,-6.55 1006.20,-3.80 1007.95,-2.15 1010.40,-1.60"/>
    </edge>
    <edge id=":J2_4" function="internal">
        <lane id=":J2_4_0" index="0" speed="9.26" length="19.35" shape="1001.60,-10.40 1000.85,-5.15 998.60,-1.40 994.85,0.85 989.60,1.60"/>
    </edge>
    <edge id=":J2_5" function="internal">
        <lane id=":J2_5_0" index="0" speed="6.51" length="9.03" shape="989.60,-4.80 992.05,-5.15 993.80,-6.20 994.85,-7.95 995.20,-10.40"/>
        <lane id=":J2_5_1" index="1" speed="8.00" length="14.19" shape="989.60,-1.60 993.45,-2.15 996.20,-3.80 997.85,-6.55 998.40,-10.40"/>
    </edge>
    <edge id=":J2_7" function="internal">
        <lane id=":J2_7_0" index="0" speed="9.72" length="20.80" shape="989.60,-1.60 1010.40,-1.60"/>
    </edge>
    <edge id=":J20_0" function="internal">
        <lane id=":J20_0_0" index="0" speed="8.96" length="18.06" shape="-4.80,-1193.60 -4.10,-1198.50 -2.00,-1202.00 1.50,-1204.10 6.40,-1204.80"/>
        <lane id=":J20_0_1" index="1" speed="7.66" length="12.90" shape="-1.60,-1193.60 -1.10,-1197.10 0.40,-1199.60 2.90,-1201.10 6.40,-1201.60"/>
    </edge>
    <edge id=":J20_2" function="internal">
        <lane id=":J20_2_0" index="0" speed="3.90" length="2.58" shape="6.40,-1195.20 5.70,-1195.10 5.20,-1194.80 4.90,-1194.30 4.80,-1193.60"/>
        <lane id=":J20_2_1" index="1" speed="6.08" length="7.74" shape="6.40,-1198.40 4.30,-1198.10 2.80,-1197.20 1.90,-1195.70 1.60,-1193.60"/>
    </edge>
    <edge id=":J21_0" function="internal">
        <lane id=":J21_0_0" index="0" speed="6.51" length="9.03" shape="498.40,-1189.60 498.05,-1192.05 497.00,-1193.80 495.25,-1194.85 492.80,-1195.20"/>
    </edge>
    <edge id=":J21_1" function="internal">
        <lane id=":J21_1_0" index="0" speed="9.26" length="19.35" shape="498.40,-1189.60 499.15,-1194.85 501.40,-1198.60 505.15,-1200.85 510.40,-1201.60"/>
    </edge>
    <edge id=":J21_2" function="internal">
        <lane id=":J21_2_0" index="0" speed="6.51" length="9.03" shape="510.40,-1195.20 507.95,-1194.85 506.20,-1193.80 505.15,-1192.05 504.80,-1189.60"/>
    </edge>
    <edge id=":J21_3" function="internal">
        <lane id=":J21_3_0" index="0" speed="13.89" length="17.60" shape="510.40,-1195.20 492.80,-1195.20"/>
        <lane id=":J21_3_1" index="1" speed="13.89" length="17.60" shape="510.40,-1198.40 492.80,-1198.40"/>
    </edge>
    <edge id=":J21_5" function="internal">
        <lane id=":J21_5_0" index="0" speed="13.89" length="17.60" shape="492.80,-1204.80 510.40,-1204.80"/>
        <lane id=":J21_5_1" index="1" speed="13.89" length="17.60" shape="492.80,-1201.60 510.40,-1201.60"/>
    </edge>
    <edge id=":J21_7" function="internal">
        <lane id=":J21_7_0" index="0" speed="8.67" length="3.71" shape="492.80,-1201.60 496.44,-1200.89"/>
    </edge>
    <edge id=":J21_8" function="internal">
        <lane id=":J21_8_0" index="0" speed="8.67" length="13.14" shape="496.44,-1200.89 496.65,-1200.85 499.40,-1198.60 501.05,-1194.85 501.60,-1189.60"/>
    </edge>
    <edge id=":J22_0" function="internal">
        <lane id=":J22_0_0" index="0" speed="6.51" length="9.03" shape="995.20,-1189.60 994.85,-1192.05 993.80,-1193.80 992.05,-1194.85 989.60,-1195.20"/>
    </edge>
    <edge id=":J22_1" function="internal">
        <lane id=":J22_1_0" index="0" speed="9.26" length="19.35" shape="998.40,-1189.60 999.15,-1194.85 1001.40,-1198.60 1005.15,-1200.85 1010.40,-1201.60"/>
    </edge>
    <edge id=":J22_2" function="internal">
        <lane id=":J22_2_0" index="0" speed="6.51" length="9.03" shape="1010.40,-1195.20 1007.95,-1194.85 1006.20,-1193.80 1005.15,-1192.05 1004.80,-1189.60"/>
    </edge>
    <edge id=":J22_3" function="internal">
        <lane id=":J22_3_0" index="0" speed="13.89" length="20.80" shape="1010.40,-1195.20 989.60,-1195.20"/>
        <lane id=":J22_3_1" index="1" speed="13.89" length="20.80" shape="1010.40,-1198.40 989.60,-1198.40"/>
    </edge>
    <edge id=":J22_5" function="internal">
        <lane id=":J22_5_0" index="0" speed="13.89" length="20.80" shape="989.60,-1204.80 1010.40,-1204.80"/>
        <lane id=":J22_5_1" index="1" speed="13.89" length="20.80" shape="989.60,-1201.60 1010.40,-1201.60"/>
    </edge>
    <edge id=":J22_7" function="internal">
        <lane id=":J22_7_0" index="0" speed="9.26" length="5.01" shape="989.60,-1201.60 994.56,-1200.89"/>
    </edge>
    <edge id=":J22_8" function="internal">
        <lane id=":J22_8_0" index="0" speed="9.26" length="14.34" shape="994.56,-1200.89 994.85,-1200.85 998.60,-1198.60 1000.85,-1194.85 1001.60,-1189.60"/>
    </edge>
    <edge id=":J23_0" function="internal">
        <lane id=":J23_0_0" index="0" speed="6.51" length="9.03" shape="1495.20,-1189.60 1494.85,-1192.05 1493.80,-1193.80 1492.05,-1194.85 1489.60,-1195.20"/>
    </edge>
    <edge id=":J23_1" function="internal">
        <lane id=":J23_1_0" index="0" speed="9.26" length="19.35" shape="1498.40,-1189.60 1499.15,-1194.85 1501.40,-1198.60 1505.15,-1200.85 1510.40,-1201.60"/>
    </edge>
    <edge id=":J23_2" function="internal">
        <lane id=":J23_2_0" index="0" speed="6.51" length="9.03" shape="1510.40,-1195.20 1507.95,-1194.85 1506.20,-1193.80 1505.15,-1192.05 1504.80,-1189.60"/>
    </edge>
    <edge id=":J23_3" function="internal">
        <lane id=":J23_3_0" index="0" speed="13.89" length="20.80" shape="1510.40,-1195.20 1489.60,-1195.20"/>
        <lane id=":J23_3_1" index="1" speed="13.89" length="20.80" shape="1510.40,-1198.40 1489.60,-1198.40"/>
    </edge>
    <edge id=":J23_5" function="internal">
        <lane id=":J23_5_0" index="0" speed="13.89" length="20.80" shape="1489.60,-1204.80 1510.40,-1204.80"/>
        <lane id=":J23_5_1" index="1" speed="13.89" length="20.80" shape="1489.60,-1201.60 1510.40,-1201.60"/>
    </edge>
    <edge id=":J23_7" function="internal">
        <lane id=":J23_7_0" index="0" speed="9.26" length="5.01" shape="1489.60,-1201.60 1494.56,-1200.89"/>
    </edge>
    <edge id=":J23_8" function="internal">
        <lane id=":J23_8_0" index="0" speed="9.26" length="14.34" shape="1494.56,-1200.89 1494.85,-1200.85 1498.60,-1198.60 1500.85,-1194.85 1501.60,-1189.60"/>
    </edge>
    <edge id=":J24_0" function="internal">
        <lane id=":J24_0_0" index="0" speed="3.90" length="2.58" shape="1995.20,-1193.60 1995.10,-1194.30 1994.80,-1194.80 1994.30,-1195.10 1993.60,-1195.20"/>
        <lane id=":J24_0_1" index="1" speed="6.08" length="7.74" shape="1998.40,-1193.60 1998.10,-1195.70 1997.20,-1197.20 1995.70,-1198.10 1993.60,-1198.40"/>
    </edge>
    <edge id=":J24_2" function="internal">
        <lane id=":J24_2_0" index="0" speed="8.96" length="18.06" shape="1993.60,-1204.80 1998.50,-1204.10 2002.00,-1202.00 2004.10,-1198.50 2004.80,-1193.60"/>
        <lane id=":J24_2_1" index="1" speed="7.66" length="12.90" shape="1993.60,-1201.60 1997.10,-1201.10 1999.60,-1199.60 2001.10,-1197.10 2001.60,-1193.60"/>
    </edge>
    <edge id=":J3_0" function="internal">
        <lane id=":J3_0_0" index="0" speed="13.89" length="20.80" shape="1510.40,4.80 1489.60,4.80"/>
        <lane id=":J3_0_1" index="1" speed="13.89" length="20.80" shape="1510.40,1.60 1489.60,1.60"/>
    </edge>
    <edge id=":J3_2" function="internal">
        <lane id=":J3_2_0" index="0" speed="9.26" length="19.35" shape="1510.40,1.60 1505.15,0.85 1501.40,-1.40 1499.15,-5.15 1498.40,-10.40"/>
    </edge>
    <edge id=":J3_3" function="internal">
        <lane id=":J3_3_0" index="0" speed="6.51" length="9.03" shape="1504.80,-10.40 1505.15,-7.95 1506.20,-6.20 1507.95,-5.15 1510.40,-4.80"/>
    </edge>
    <edge id=":J3_4" function="internal">
        <lane id=":J3_4_0" index="0" speed="9.26" length="2.51" shape="1501.60,-10.40 1501.24,-7.91"/>
    </edge>
    <edge id=":J3_8" function="internal">
        <lane id=":J3_8_0" index="0" speed="9.26" length="16.84" shape="1501.24,-7.91 1500.85,-5.15 1498.60,-1.40 1494.85,0.85 1489.60,1.60"/>
    </edge>
    <edge id=":J3_5" function="internal">
        <lane id=":J3_5_0" index="0" speed="7.33" length="11.73" shape="1489.60,-1.60 1492.05,-2.15 1493.80,-3.80 1494.85,-6.55 1495.20,-10.40"/>
    </edge>
    <edge id=":J3_6" function="internal">
        <lane id=":J3_6_0" index="0" speed="9.72" length="20.94" shape="1489.60,-1.60 1493.55,-2.10 1498.12,-3.20 1503.63,-4.30 1510.40,-4.80"/>
        <lane id=":J3_6_1" index="1" speed="9.72" length="20.94" shape="1489.60,-1.60 1510.40,-1.60"/>
    </edge>
    <edge id=":J4_0" function="internal">
        <lane id=":J4_0_0" index="0" speed="8.96" length="18.06" shape="2004.80,-6.40 2004.10,-1.50 2002.00,2.00 1998.50,4.10 1993.60,4.80"/>
        <lane id=":J4_0_1" index="1" speed="7.66" length="12.90" shape="2001.60,-6.40 2001.10,-2.90 1999.60,-0.40 1997.10,1.10 1993.60,1.60"/>
    </edge>
    <edge id=":J4_2" function="internal">
        <lane id=":J4_2_0" index="0" speed="3.90" length="2.58" shape="1993.60,-4.80 1994.30,-4.90 1994.80,-5.20 1995.10,-5.70 1995.20,-6.40"/>
        <lane id=":J4_2_1" index="1" speed="6.08" length="7.74" shape="1993.60,-1.60 1995.70,-1.90 1997.20,-2.80 1998.10,-4.30 1998.40,-6.40"/>
    </edge>
    <edge id=":J5_0" function="internal">
        <lane id=":J5_0_0" index="0" speed="6.51" length="9.03" shape="1995.20,-289.60 1994.85,-292.05 1993.80,-293.80 1992.05,-294.85 1989.60,-295.20"/>
    </edge>
    <edge id=":J5_1" function="internal">
        <lane id=":J5_1_0" index="0" speed="13.89" length="20.80" shape="1995.20,-289.60 1995.20,-310.40"/>
        <lane id=":J5_1_1" index="1" speed="13.89" length="20.80" shape="1998.40,-289.60 1998.40,-310.40"/>
    </edge>
    <edge id=":J5_3" function="internal">
        <lane id=":J5_3_0" index="0" speed="13.89" length="20.80" shape="2004.80,-310.40 2004.80,-289.60"/>
        <lane id=":J5_3_1" index="1" speed="13.89" length="20.80" shape="2001.60,-310.40 2001.60,-289.60"/>
    </edge>
    <edge id=":J5_5" function="internal">
        <lane id=":J5_5_0" index="0" speed="9.26" length="5.01" shape="2001.60,-310.40 2000.89,-305.44"/>
    </edge>
    <edge id=":J5_8" function="internal">
        <lane id=":J5_8_0" index="0" speed="9.26" length="14.34" shape="2000.89,-305.44 2000.85,-305.15 1998.60,-301.40 1994.85,-299.15 1989.60,-298.40"/>
    </edge>
    <edge id=":J5_6" function="internal">
        <lane id=":J5_6_0" index="0" speed="6.51" length="9.03" shape="1989.60,-304.80 1992.05,-305.15 1993.80,-306.20 1994.85,-307.95 1995.20,-310.40"/>
    </edge>
    <edge id=":J5_7" function="internal">
        <lane id=":J5_7_0" index="0" speed="9.26" length="19.35" shape="1989.60,-301.60 1994.85,-300.85 1998.60,-298.60 2000.85,-294.85 2001.60,-289.60"/>
    </edge>
    <edge id=":J6_0" function="internal">
        <lane id=":J6_0_0" index="0" speed="6.51" length="9.03" shape="1495.20,-289.60 1494.85,-292.05 1493.80,-293.80 1492.05,-294.85 1489.60,-295.20"/>
    </edge>
    <edge id=":J6_1" function="internal">
        <lane id=":J6_1_0" index="0" speed="13.89" length="20.80" shape="1495.20,-289.60 1495.20,-310.40"/>
        <lane id=":J6_1_1" index="1" speed="13.89" length="20.80" shape="1498.40,-289.60 1498.40,-310.40"/>
    </edge>
    <edge id=":J6_3" function="internal">
        <lane id=":J6_3_0" index="0" speed="9.26" length="5.01" shape="1498.40,-289.60 1499.11,-294.56"/>
    </edge>
    <edge id=":J6_16" function="internal">
        <lane id=":J6_16_0" index="0" speed="9.26" length="14.34" shape="1499.11,-294.56 1499.15,-294.85 1501.40,-298.60 1505.15,-300.85 1510.40,-301.60"/>
    </edge>
    <edge id=":J6_4" function="internal">
        <lane id=":J6_4_0" index="0" speed="6.51" length="9.03" shape="1510.40,-295.20 1507.95,-294.85 1506.20,-293.80 1505.15,-292.05 1504.80,-289.60"/>
    </edge>
    <edge id=":J6_5" function="internal">
        <lane id=":J6_5_0" index="0" speed="13.89" length="20.80" shape="1510.40,-295.20 1489.60,-295.20"/>