<?xml version="1.0" encoding="UTF-8"?>
<routes xmlns:xsi="http://www.w3.org/2001/XMLSchema-instance" xsi:noNamespaceSchemaLocation="http://sumo.dlr.de/xsd/routes_file.xsd">

    <vType id="carro_normal" accel="2.6" decel="4.5" length="5.0" maxSpeed="33.3" />

    <route id="1" edges="E0 E2" />
    <route id="2" edges="E0 E2" />

    </routes>
